@<TRIPOS>MOLECULE
*****
 29 29 0 0 0
SMALL
GASTEIGER

@<TRIPOS>ATOM
      1 C          13.9775    7.0947    1.1629 C.3     1  UNL1       -0.0215
      2 C          13.5867    8.3457    1.9541 C.3     1  UNL1       -0.0244
      3 N          14.7262    8.8624    2.7294 N.4     1  UNL1        0.2207
      4 C          12.2789    8.3257    2.7810 C.3     1  UNL1        0.0017
      5 C          11.1542    7.3175    2.4284 C.3     1  UNL1       -0.0444
      6 C           9.8116    7.9440    2.0783 C.3     1  UNL1       -0.0414
      7 C           9.4068    8.9987    3.1066 C.3     1  UNL1        0.0389
      8 C           7.9973    9.4681    2.8531 C.2     1  UNL1        0.2550
      9 N           7.1267    9.6983    3.9582 N.am    1  UNL1       -0.0882
     10 O           7.5823    9.6674    1.6776 O.2     1  UNL1       -0.2721
     11 C          10.3885   10.1667    3.0424 C.3     1  UNL1       -0.0414
     12 C          11.8402    9.7357    3.2951 C.3     1  UNL1       -0.0444
     13 H          13.2640    6.9114    0.3323 H       1  UNL1        0.0284
     14 H          14.9827    7.2177    0.7064 H       1  UNL1        0.0284
     15 H          14.0002    6.2124    1.8366 H       1  UNL1        0.0284
     16 H          13.3895    9.0972    1.1553 H       1  UNL1        0.0850
     17 H          15.0108    8.1606    3.4509 H       1  UNL1        0.1997
     18 H          14.5066    9.7643    3.2057 H       1  UNL1        0.1997
     19 H          15.5402    9.0359    2.0955 H       1  UNL1        0.1997
     20 H          12.6635    7.8545    3.7164 H       1  UNL1        0.0355
     21 H          10.9774    6.6354    3.2928 H       1  UNL1        0.0270
     22 H          11.4419    6.6545    1.5914 H       1  UNL1        0.0270
     23 H           9.0434    7.1396    2.0403 H       1  UNL1        0.0273
     24 H           9.8771    8.3972    1.0635 H       1  UNL1        0.0273
     25 H           9.4537    8.5436    4.1218 H       1  UNL1        0.0395
     26 H          10.1015   10.9398    3.7894 H       1  UNL1        0.0273
     27 H          10.3269   10.6411    2.0368 H       1  UNL1        0.0273
     28 H          12.4759   10.5325    2.8542 H       1  UNL1        0.0270
     29 H          12.0123    9.7890    4.3946 H       1  UNL1        0.0270
@<TRIPOS>UNITY_ATOM_ATTR
3 1
charge 1
@<TRIPOS>BOND
     1     1     2    1
     2     2     3    1
     3     2     4    1
     4     4     5    1
     5     5     6    1
     6     6     7    1
     7     7     8    1
     8     8     9    1
     9     8    10    2
    10     7    11    1
    11    11    12    1
    12    12     4    1
    13     1    13    1
    14     1    14    1
    15     1    15    1
    16     2    16    1
    17     3    17    1
    18     3    18    1
    19     3    19    1
    20     4    20    1
    21     5    21    1
    22     5    22    1
    23     6    23    1
    24     6    24    1
    25     7    25    1
    26    11    26    1
    27    11    27    1
    28    12    28    1
    29    12    29    1
