@<TRIPOS>MOLECULE
*****
 16 16 0 0 0
SMALL
GASTEIGER

@<TRIPOS>ATOM
      1 CL         14.1156   -1.4643   21.2494 Cl      1  UNL1       -0.1217
      2 C          13.0619   -1.1023   22.6301 C.3     1  UNL1        0.0345
      3 C          13.6326    0.0136   23.4836 C.3     1  UNL1       -0.0367
      4 C          12.7428    0.3090   24.6796 C.3     1  UNL1       -0.0512
      5 C          11.2832    0.5224   24.3033 C.3     1  UNL1       -0.0462
      6 C          10.7252   -0.5361   23.3626 C.3     1  UNL1       -0.0155
      7 C          11.6386   -0.8262   22.1825 C.3     1  UNL1       -0.0300
      8 H          13.0491   -2.0284   23.2473 H       1  UNL1        0.0465
      9 H          13.7330    0.9346   22.8678 H       1  UNL1        0.0279
     10 H          14.6459   -0.2698   23.8433 H       1  UNL1        0.0279
     11 H          12.8049   -0.5446   25.3902 H       1  UNL1        0.0266
     12 H          13.1230    1.2100   25.2081 H       1  UNL1        0.0266
     13 H          11.1917    1.5138   23.8074 H       1  UNL1        0.0271
     14 H          10.6656    0.5570   25.2270 H       1  UNL1        0.0271
     15 H          11.6324    0.0480   21.4946 H       1  UNL1        0.0285
     16 H          11.2449   -1.7030   21.6235 H       1  UNL1        0.0285
@<TRIPOS>BOND
     1     1     2    1
     2     2     3    1
     3     3     4    1
     4     4     5    1
     5     5     6    1
     6     6     7    1
     7     7     2    1
     8     2     8    1
     9     3     9    1
    10     3    10    1
    11     4    11    1
    12     4    12    1
    13     5    13    1
    14     5    14    1
    15     7    15    1
    16     7    16    1
